@<TRIPOS>MOLECULE
SIM-32751-E15
 49 52 0 0 0
SMALL
GASTEIGER

@<TRIPOS>ATOM
      1 C           0.5285   -6.3745  -26.7654 C.ar    1  UNL1       -0.0609
      2 C           1.6820   -7.1545  -26.6947 C.ar    1  UNL1       -0.0597
      3 C           0.2750   -5.4116  -25.7899 C.ar    1  UNL1       -0.0474
      4 C           2.5874   -6.9746  -25.6470 C.ar    1  UNL1       -0.0355
      5 C           5.4419   -7.3731  -16.1407 C.ar    1  UNL1        0.1204
      6 C           6.6638   -8.3040  -18.3155 C.ar    1  UNL1        0.0619
      7 C           1.1847   -5.2355  -24.7432 C.ar    1  UNL1        0.0647
      8 C           7.3169   -9.1449  -19.2527 C.ar    1  UNL1       -0.0176
      9 C           2.3495   -6.0130  -24.6591 C.ar    1  UNL1        0.0782
     10 C           7.4253  -10.3956  -18.6826 C.ar    1  UNL1        0.0182
     11 C           6.3947   -9.0793  -17.1943 C.ar    1  UNL1        0.1436
     12 C           6.2588   -6.9710  -18.2654 C.ar    1  UNL1        0.1377
     13 C           0.9361   -4.2199  -23.6971 C.ar    1  UNL1        0.2592
     14 C           3.0353   -4.9613  -22.7185 C.ar    1  UNL1        0.1203
     15 C           6.1482   -4.7571  -19.4625 C.2     1  UNL1        0.2310
     16 C           7.7978   -8.7652  -20.5976 C.3     1  UNL1       -0.0373
     17 C           8.0125  -11.6473  -19.1994 C.3     1  UNL1       -0.0241
     18 C           8.0540   -4.2978  -21.0534 C.3     1  UNL1       -0.0449
     19 C           3.9771   -4.7304  -21.5747 C.3     1  UNL1        0.0525
     20 C           6.5536   -4.1809  -20.8160 C.3     1  UNL1        0.0793
     21 N           5.7839   -8.6755  -16.0667 N.ar    1  UNL1       -0.2178
     22 N           5.6382   -6.5037  -17.1575 N.ar    1  UNL1       -0.2198
     23 N           3.2843   -5.8596  -23.6181 N.ar    1  UNL1       -0.2329
     24 N           6.8630  -10.3440  -17.4328 N.ar    1  UNL1       -0.3429
     25 N           1.9177   -4.1527  -22.7217 N.ar    1  UNL1       -0.3097
     26 N           6.4896   -6.1032  -19.3591 N.am    1  UNL1       -0.2689
     27 O          -0.0636   -3.5114  -23.7176 O.2     1  UNL1       -0.2672
     28 O           5.5799   -4.0710  -18.6173 O.2     1  UNL1       -0.2742
     29 S           5.6641   -5.1036  -22.0928 S.3     1  UNL1       -0.1406
     30 H          -0.1731   -6.5174  -27.5822 H       1  UNL1        0.0618
     31 H           1.8763   -7.9040  -27.4565 H       1  UNL1        0.0618
     32 H          -0.6285   -4.8128  -25.8606 H       1  UNL1        0.0626
     33 H           3.4819   -7.5916  -25.6070 H       1  UNL1        0.0639
     34 H           4.9421   -6.9674  -15.2677 H       1  UNL1        0.1048
     35 H           8.8370   -8.4018  -20.5579 H       1  UNL1        0.0278
     36 H           7.7643   -9.6132  -21.3017 H       1  UNL1        0.0278
     37 H           7.1797   -7.9699  -21.0467 H       1  UNL1        0.0278
     38 H           9.0806  -11.7227  -18.9379 H       1  UNL1        0.0292
     39 H           7.5048  -12.5400  -18.7959 H       1  UNL1        0.0292
     40 H           7.9301  -11.7204  -20.2974 H       1  UNL1        0.0292
     41 H           8.4029   -5.3358  -21.0036 H       1  UNL1        0.0245
     42 H           8.3102   -3.9204  -22.0499 H       1  UNL1        0.0245
     43 H           8.6199   -3.7096  -20.3225 H       1  UNL1        0.0245
     44 H           3.6967   -5.3742  -20.7423 H       1  UNL1        0.0456
     45 H           3.9089   -3.6922  -21.2530 H       1  UNL1        0.0456
     46 H           6.2621   -3.1268  -20.8770 H       1  UNL1        0.0504
     47 H           6.8002  -11.1181  -16.7860 H       1  UNL1        0.1670
     48 H           1.8091   -3.4748  -21.9724 H       1  UNL1        0.1701
     49 H           6.9602   -6.5105  -20.1644 H       1  UNL1        0.1563
@<TRIPOS>BOND
     1     1     2   ar
     2     1     3   ar
     3     1    30    1
     4     2     4   ar
     5     2    31    1
     6     3     7   ar
     7     3    32    1
     8     4     9   ar
     9     4    33    1
    10     5    21   ar
    11     5    22   ar
    12     5    34    1
    13     6     8   ar
    14     6    11   ar
    15     6    12   ar
    16     7     9   ar
    17     7    13   ar
    18     8    10   ar
    19     8    16    1
    20     9    23   ar
    21    10    17    1
    22    10    24   ar
    23    11    21   ar
    24    11    24   ar
    25    12    22   ar
    26    12    26    1
    27    13    25   ar
    28    13    27    2
    29    14    19    1
    30    14    23   ar
    31    14    25   ar
    32    15    20    1
    33    15    26   am
    34    15    28    2
    35    16    35    1
    36    16    36    1
    37    16    37    1
    38    17    38    1
    39    17    39    1
    40    17    40    1
    41    18    20    1
    42    18    41    1
    43    18    42    1
    44    18    43    1
    45    19    29    1
    46    19    44    1
    47    19    45    1
    48    20    29    1
    49    20    46    1
    50    24    47    1
    51    25    48    1
    52    26    49    1
