# created with PyMOL 2.3.2
@<TRIPOS>MOLECULE
UNL
50 53 1                 
SMALL
USER_CHARGES
@<TRIPOS>ATOM
1	   C	6.818	-10.030	-19.341	C.2	1	UNL	0.000	
2	   C	6.149	-10.022	-18.117	C.2	1	UNL	0.000	
3	   C	4.953	-1.877	-19.847	C.2	1	UNL	0.000	
4	   C	4.396	-2.751	-20.781	C.2	1	UNL	0.000	
5	   C	7.266	-8.832	-19.898	C.2	1	UNL	0.000	
6	   C	5.927	-8.817	-17.451	C.2	1	UNL	0.000	
7	   C	6.047	-2.300	-19.099	C.2	1	UNL	0.000	
8	   C	4.983	-4.017	-20.904	C.2	1	UNL	0.000	
9	   C	7.045	-7.627	-19.232	C.2	1	UNL	0.000	
10	   C	1.905	-5.851	-24.534	C.2	1	UNL	0.000	
11	   C	6.375	-7.619	-18.008	C.2	1	UNL	0.000	
12	   C	4.794	-5.189	-21.663	C.2	1	UNL	0.000	
13	   C	6.070	-4.310	-20.096	C.2	1	UNL	0.000	
14	   C	2.424	-6.872	-23.764	C.2	1	UNL	0.000	
15	   C	2.415	-4.594	-24.281	C.2	1	UNL	0.000	
16	   C	3.785	-5.419	-22.666	C.2	1	UNL	0.000	
17	   C	1.164	-6.959	-26.620	C.2	1	UNL	0.000	
18	   C	-0.410	-5.414	-25.436	C.3	1	UNL	0.000	
19	   C	2.675	-8.474	-27.675	C.3	1	UNL	0.000	
20	   C	7.530	-6.337	-19.836	C.3	1	UNL	0.000	
21	   N	6.648	-3.511	-19.182	N.2	1	UNL	0.000	
22	   N	5.679	-6.146	-21.368	N.2	1	UNL	0.000	
23	   N	3.369	-6.691	-22.817	N.2	1	UNL	0.000	
24	   N	3.359	-4.341	-23.351	N.2	1	UNL	0.000	
25	   N	6.441	-5.583	-20.413	N.2	1	UNL	0.000	
26	   N	1.943	-8.188	-23.972	N.pl3	1	UNL	0.000	
27	   N	1.924	-3.500	-25.037	N.pl3	1	UNL	0.000	
28	   N	0.927	-6.076	-25.506	N.pl3	1	UNL	0.000	
29	   O	0.343	-7.195	-27.503	O.co2	1	UNL	0.000	
30	   O	2.398	-7.560	-26.607	O.3	1	UNL	0.000	
31	   F	6.158	-6.466	-17.360	 F	1	UNL	0.000	
32	   H	6.991	-10.968	-19.860	 H	1	UNL	0.000	
33	   H	5.800	-10.955	-17.684	 H	1	UNL	0.000	
34	   H	4.540	-0.884	-19.708	 H	1	UNL	0.000	
35	   H	3.543	-2.453	-21.381	 H	1	UNL	0.000	
36	   H	7.786	-8.847	-20.852	 H	1	UNL	0.000	
37	   H	5.407	-8.811	-16.497	 H	1	UNL	0.000	
38	   H	6.491	-1.629	-18.368	 H	1	UNL	0.000	
39	   H	-0.372	-4.454	-25.972	 H	1	UNL	0.000	
40	   H	-1.166	-6.064	-25.901	 H	1	UNL	0.000	
41	   H	-0.676	-5.235	-24.384	 H	1	UNL	0.000	
42	   H	3.681	-8.884	-27.554	 H	1	UNL	0.000	
43	   H	2.596	-7.952	-28.632	 H	1	UNL	0.000	
44	   H	1.947	-9.288	-27.644	 H	1	UNL	0.000	
45	   H	8.022	-5.708	-19.084	 H	1	UNL	0.000	
46	   H	8.272	-6.522	-20.621	 H	1	UNL	0.000	
47	   H	1.212	-8.334	-24.633	 H	1	UNL	0.000	
48	   H	2.280	-8.922	-23.387	 H	1	UNL	0.000	
49	   H	1.261	-3.674	-25.760	 H	1	UNL	0.000	
50	   H	2.323	-2.598	-24.891	 H	1	UNL	0.000	
@<TRIPOS>BOND
1 1 2 ar
2 1 5 ar
3 1 32 1
4 2 6 ar
5 2 33 1
6 3 4 ar
7 3 7 ar
8 3 34 1
9 4 8 ar
10 4 35 1
11 5 9 ar
12 5 36 1
13 6 11 ar
14 6 37 1
15 7 21 ar
16 7 38 1
17 8 12 ar
18 8 13 ar
19 9 11 ar
20 9 20 1
21 10 14 ar
22 10 15 ar
23 10 28 1
24 11 31 1
25 12 16 1
26 12 22 ar
27 13 21 ar
28 13 25 ar
29 14 23 ar
30 14 26 1
31 15 24 ar
32 15 27 1
33 16 23 ar
34 16 24 ar
35 17 28 1
36 17 29 2
37 17 30 1
38 18 28 1
39 18 39 1
40 18 40 1
41 18 41 1
42 19 30 1
43 19 42 1
44 19 43 1
45 19 44 1
46 20 25 1
47 20 45 1
48 20 46 1
49 22 25 ar
50 26 47 1
51 26 48 1
52 27 49 1
53 27 50 1
@<TRIPOS>SUBSTRUCTURE
1	UNL	1	GROUP	1 ****	UNK
