# created with PyMOL 2.3.2
@<TRIPOS>MOLECULE
LIG(A-1101)
26 27 1                 
SMALL
USER_CHARGES
@<TRIPOS>ATOM
1	   C	9.672	1.800	22.179	C.2	1	UNK0	0.000	
2	   C	9.294	1.139	23.547	C.3	1	UNK0	0.000	
3	   C	7.970	1.051	23.708	C.3	1	UNK0	0.000	
4	   C	7.569	-0.455	23.293	C.3	1	UNK0	0.000	
5	   C	8.932	-1.154	22.945	C.3	1	UNK0	0.000	
6	   C	9.862	-0.426	23.620	C.3	1	UNK0	0.000	
7	   C	11.284	-0.517	23.013	C.2	1	UNK0	0.000	
8	   C	12.297	0.400	23.386	C.2	1	UNK0	0.000	
9	   C	13.547	0.185	22.754	C.2	1	UNK0	0.000	
10	   C	11.651	-1.512	22.085	C.2	1	UNK0	0.000	
11	   N	10.468	3.035	22.181	N.pl3	1	UNK0	0.000	
12	   O	9.329	1.303	21.126	O.2	1	UNK0	0.000	
13	   S	13.339	-1.206	21.711	S.3	1	UNK0	0.000	
14	   H	9.774	1.705	24.359	 H	1	UNK0	0.000	
15	   H	7.699	1.243	24.757	 H	1	UNK0	0.000	
16	   H	7.457	1.776	23.058	 H	1	UNK0	0.000	
17	   H	7.073	-0.968	24.130	 H	1	UNK0	0.000	
18	   H	6.902	-0.451	22.419	 H	1	UNK0	0.000	
19	   H	8.932	-2.200	23.286	 H	1	UNK0	0.000	
20	   H	9.122	-1.121	21.862	 H	1	UNK0	0.000	
21	   H	9.909	-0.712	24.681	 H	1	UNK0	0.000	
22	   H	12.130	1.198	24.094	 H	1	UNK0	0.000	
23	   H	14.449	0.764	22.889	 H	1	UNK0	0.000	
24	   H	11.026	-2.298	21.687	 H	1	UNK0	0.000	
25	   H	10.726	3.465	21.316	 H	1	UNK0	0.000	
26	   H	10.751	3.446	23.048	 H	1	UNK0	0.000	
@<TRIPOS>BOND
1 1 2 1
2 1 11 1
3 1 12 2
4 2 3 1
5 2 6 1
6 2 14 1
7 3 4 1
8 3 15 1
9 3 16 1
10 4 5 1
11 4 17 1
12 4 18 1
13 5 6 1
14 5 19 1
15 5 20 1
16 6 7 1
17 6 21 1
18 7 8 1
19 7 10 2
20 8 9 2
21 8 22 1
22 9 13 1
23 9 23 1
24 10 13 1
25 10 24 1
26 11 25 1
27 11 26 1
@<TRIPOS>SUBSTRUCTURE
1	UNK0	1	GROUP	1 ****	UNK
