# created with PyMOL 2.3.2
@<TRIPOS>MOLECULE
obj01
39 42 1                 
SMALL
USER_CHARGES
@<TRIPOS>ATOM
1	  CL	33.720	17.683	-7.444	Cl	1	QUP2000	0.000	
2	  C1	32.365	11.969	-3.681	C.2	1	QUP2000	0.000	
3	  C2	33.033	10.808	-3.027	C.2	1	QUP2000	0.000	
4	  C3	34.187	10.994	-2.278	C.2	1	QUP2000	0.000	
5	  C4	34.992	12.131	-1.930	C.2	1	QUP2000	0.000	
6	  C5	36.021	11.641	-1.148	C.2	1	QUP2000	0.000	
7	  C6	35.852	10.272	-1.026	C.2	1	QUP2000	0.000	
8	  N7	34.754	9.936	-1.711	N.2	1	QUP2000	0.000	
9	  N8	34.224	8.651	-1.847	N.2	1	QUP2000	0.000	
10	  C9	33.110	8.504	-2.576	C.2	1	QUP2000	0.000	
11	 N10	32.522	9.562	-3.157	N.2	1	QUP2000	0.000	
12	 C11	31.158	11.932	-4.379	C.2	1	QUP2000	0.000	
13	 C12	30.892	13.220	-4.826	C.2	1	QUP2000	0.000	
14	 C13	29.718	13.685	-5.618	C.2	1	QUP2000	0.000	
15	 O14	28.760	12.943	-5.757	O.2	1	QUP2000	0.000	
16	 N15	29.748	14.902	-6.154	N.pl3	1	QUP2000	0.000	
17	 N16	31.917	13.945	-4.390	N.2	1	QUP2000	0.000	
18	 C17	32.016	15.257	-4.629	C.2	1	QUP2000	0.000	
19	 C18	32.702	15.763	-5.733	C.2	1	QUP2000	0.000	
20	 C19	32.816	17.122	-5.998	C.2	1	QUP2000	0.000	
21	 C21	32.232	18.043	-5.145	C.2	1	QUP2000	0.000	
22	 C22	31.543	17.574	-4.039	C.2	1	QUP2000	0.000	
23	 C23	31.442	16.209	-3.795	C.2	1	QUP2000	0.000	
24	 C24	30.683	15.744	-2.581	C.3	1	QUP2000	0.000	
25	 C25	32.838	13.278	-3.700	C.2	1	QUP2000	0.000	
26	 H01	34.826	13.168	-2.223	 H	1	QUP2000	0.000	
27	 H02	36.825	12.229	-0.705	 H	1	QUP2000	0.000	
28	 H03	36.498	9.591	-0.471	 H	1	QUP2000	0.000	
29	 H04	32.675	7.512	-2.699	 H	1	QUP2000	0.000	
30	 H05	30.536	11.052	-4.544	 H	1	QUP2000	0.000	
31	 H06	30.556	15.493	-6.021	 H	1	QUP2000	0.000	
32	 H07	28.962	15.235	-6.694	 H	1	QUP2000	0.000	
33	 H08	33.171	15.059	-6.420	 H	1	QUP2000	0.000	
34	 H09	32.313	19.112	-5.339	 H	1	QUP2000	0.000	
35	 H10	31.076	18.281	-3.354	 H	1	QUP2000	0.000	
36	 H11	29.689	15.411	-2.880	 H	1	QUP2000	0.000	
37	 H12	31.217	14.917	-2.113	 H	1	QUP2000	0.000	
38	 H13	30.592	16.566	-1.871	 H	1	QUP2000	0.000	
39	 H14	33.753	13.667	-3.252	 H	1	QUP2000	0.000	
@<TRIPOS>BOND
1 1 20 1
2 2 3 1
3 3 4 ar
4 3 11 ar
5 4 5 ar
6 5 26 1
7 5 6 ar
8 6 27 1
9 6 7 ar
10 7 28 1
11 4 8 ar
12 7 8 ar
13 8 9 ar
14 9 10 ar
15 10 29 1
16 10 11 ar
17 2 12 ar
18 12 30 1
19 12 13 ar
20 13 14 1
21 14 15 2
22 14 16 1
23 16 31 1
24 16 32 1
25 13 17 ar
26 17 25 ar
27 17 18 1
28 18 19 ar
29 19 33 1
30 19 20 ar
31 20 21 ar
32 21 22 ar
33 21 34 1
34 22 23 ar
35 22 35 1
36 18 23 ar
37 23 24 1
38 24 36 1
39 24 37 1
40 24 38 1
41 2 25 ar
42 25 39 1
@<TRIPOS>SUBSTRUCTURE
1	QUP2000	1	GROUP	1 A	QUP
