# created with PyMOL 2.4.0
@<TRIPOS>MOLECULE
obj01
14 15 1                 
SMALL
USER_CHARGES
@<TRIPOS>ATOM
1	   N	12.622	-16.614	-20.925	N.pl3	1	6DP1201	0.000	
2	   C	13.493	-17.648	-20.466	C.2	1	6DP1201	0.000	
3	   O	11.449	-14.487	-20.642	O.2	1	6DP1201	0.000	
4	  C1	12.850	-18.830	-20.081	C.2	1	6DP1201	0.000	
5	  N1	12.741	-21.004	-19.410	N.pl3	1	6DP1201	0.000	
6	  O1	13.629	-14.619	-21.769	O.2	1	6DP1201	0.000	
7	  C2	13.612	-19.985	-19.693	C.2	1	6DP1201	0.000	
8	  N2	11.522	-20.464	-19.642	N.2	1	6DP1201	0.000	
9	  C3	11.526	-19.177	-20.024	C.2	1	6DP1201	0.000	
10	  C4	15.042	-19.948	-19.687	C.2	1	6DP1201	0.000	
11	  C5	15.644	-18.765	-20.063	C.2	1	6DP1201	0.000	
12	  C6	14.873	-17.604	-20.454	C.2	1	6DP1201	0.000	
13	  C7	13.574	-14.699	-19.260	C.3	1	6DP1201	0.000	
14	   S	12.766	-15.015	-20.717	S.O2	1	6DP1201	0.000	
@<TRIPOS>BOND
1 1 2 1
2 2 4 ar
3 4 7 ar
4 4 9 ar
5 5 8 ar
6 6 14 2
7 5 7 ar
8 7 10 ar
9 8 9 ar
10 10 11 ar
11 11 12 ar
12 2 12 ar
13 1 14 1
14 3 14 2
15 13 14 1
@<TRIPOS>SUBSTRUCTURE
1	6DP1201	1	GROUP	1 A	6DP
