# created with PyMOL 2.3.2
@<TRIPOS>MOLECULE
output-4
64 69 1                 
SMALL
USER_CHARGES
@<TRIPOS>ATOM
1	  C2	15.224	13.982	4.943	C.2	1	DQX1	0.000	
2	  C3	15.617	15.090	4.166	C.2	1	DQX1	0.000	
3	  C4	15.163	15.195	2.840	C.2	1	DQX1	0.000	
4	  C5	14.313	14.214	2.322	C.2	1	DQX1	0.000	
5	  C7	13.913	13.121	3.103	C.2	1	DQX1	0.000	
6	  C8	14.376	12.999	4.418	C.2	1	DQX1	0.000	
7	 C10	13.018	12.131	2.440	C.2	1	DQX1	0.000	
8	 C11	13.267	10.745	2.463	C.2	1	DQX1	0.000	
9	 N12	14.342	10.219	3.129	N.2	1	DQX1	0.000	
10	 C13	14.555	8.878	3.139	C.2	1	DQX1	0.000	
11	 C14	13.667	8.044	2.452	C.2	1	DQX1	0.000	
12	 N16	12.614	8.549	1.781	N.2	1	DQX1	0.000	
13	 C17	12.388	9.882	1.777	C.2	1	DQX1	0.000	
14	 C18	11.277	10.383	1.078	C.2	1	DQX1	0.000	
15	 C20	11.040	11.762	1.053	C.2	1	DQX1	0.000	
16	 C22	11.902	12.634	1.740	C.2	1	DQX1	0.000	
17	 C24	15.741	8.327	3.910	C.2	1	DQX1	0.000	
18	 C25	16.119	7.042	4.157	C.2	1	DQX1	0.000	
19	 N27	17.216	7.098	4.871	N.2	1	DQX1	0.000	
20	 N28	17.549	8.388	5.107	N.2	1	DQX1	0.000	
21	 C29	16.723	9.188	4.569	C.2	1	DQX1	0.000	
22	 C31	18.040	6.036	5.436	C.3	1	DQX1	0.000	
23	 C33	17.312	5.392	6.655	C.3	1	DQX1	0.000	
24	 C36	18.147	4.250	7.288	C.3	1	DQX1	0.000	
25	 N39	18.518	3.299	6.219	N.3	1	DQX1	0.000	
26	 C41	19.380	3.883	5.153	C.3	1	DQX1	0.000	
27	 C44	18.579	5.000	4.412	C.3	1	DQX1	0.000	
28	 C48	16.527	16.184	4.754	C.3	1	DQX1	0.000	
29	 N51	15.689	17.274	5.375	N.3	1	DQX1	0.000	
30	 C52	14.995	16.869	6.639	C.3	1	DQX1	0.000	
31	 C55	14.147	18.009	7.263	C.3	1	DQX1	0.000	
32	 O58	13.291	18.597	6.263	O.3	1	DQX1	0.000	
33	 C59	14.057	19.195	5.200	C.3	1	DQX1	0.000	
34	 C62	14.838	18.084	4.445	C.3	1	DQX1	0.000	
35	  F1	15.624	13.838	6.208	 F	1	DQX1	0.000	
36	 F47	15.521	16.217	2.050	 F	1	DQX1	0.000	
37	 H01	13.956	14.300	1.296	 H	1	DQX1	0.000	
38	 H02	14.079	12.146	5.028	 H	1	DQX1	0.000	
39	 H03	13.830	6.966	2.460	 H	1	DQX1	0.000	
40	 H04	10.604	9.702	0.558	 H	1	DQX1	0.000	
41	 H05	10.188	12.159	0.501	 H	1	DQX1	0.000	
42	 H06	11.707	13.706	1.732	 H	1	DQX1	0.000	
43	 H07	15.607	6.139	3.824	 H	1	DQX1	0.000	
44	 H08	16.741	10.278	4.593	 H	1	DQX1	0.000	
45	 H09	18.957	6.507	5.791	 H	1	DQX1	0.000	
46	 H10	16.372	4.968	6.302	 H	1	DQX1	0.000	
47	 H11	17.136	6.160	7.408	 H	1	DQX1	0.000	
48	 H12	17.566	3.742	8.057	 H	1	DQX1	0.000	
49	 H13	19.047	4.661	7.746	 H	1	DQX1	0.000	
50	 H14	19.014	2.526	6.640	 H	1	DQX1	0.000	
51	 H15	19.671	3.106	4.446	 H	1	DQX1	0.000	
52	 H16	20.278	4.310	5.600	 H	1	DQX1	0.000	
53	 H17	19.239	5.505	3.707	 H	1	DQX1	0.000	
54	 H18	17.742	4.551	3.878	 H	1	DQX1	0.000	
55	 H19	17.134	16.611	3.956	 H	1	DQX1	0.000	
56	 H20	17.173	15.746	5.515	 H	1	DQX1	0.000	
57	 H21	15.767	16.607	7.362	 H	1	DQX1	0.000	
58	 H22	14.338	16.028	6.420	 H	1	DQX1	0.000	
59	 H23	14.815	18.776	7.654	 H	1	DQX1	0.000	
60	 H24	13.535	17.604	8.069	 H	1	DQX1	0.000	
61	 H25	14.759	19.917	5.617	 H	1	DQX1	0.000	
62	 H26	13.386	19.704	4.508	 H	1	DQX1	0.000	
63	 H27	14.113	17.416	3.980	 H	1	DQX1	0.000	
64	 H28	15.478	18.549	3.695	 H	1	DQX1	0.000	
@<TRIPOS>BOND
1 1 2 ar
2 1 6 ar
3 1 35 1
4 2 3 ar
5 2 28 1
6 3 4 ar
7 3 36 1
8 4 5 ar
9 4 37 1
10 5 6 ar
11 5 7 1
12 6 38 1
13 7 8 ar
14 7 16 ar
15 8 9 ar
16 8 13 ar
17 9 10 ar
18 10 11 ar
19 10 17 1
20 11 12 ar
21 11 39 1
22 12 13 ar
23 13 14 ar
24 14 15 ar
25 14 40 1
26 15 16 ar
27 15 41 1
28 16 42 1
29 17 18 ar
30 17 21 ar
31 18 19 ar
32 18 43 1
33 19 20 ar
34 19 22 1
35 20 21 ar
36 21 44 1
37 22 23 1
38 22 27 1
39 22 45 1
40 23 24 1
41 23 46 1
42 23 47 1
43 24 25 1
44 24 48 1
45 24 49 1
46 25 26 1
47 25 50 1
48 26 27 1
49 26 51 1
50 26 52 1
51 27 53 1
52 27 54 1
53 28 29 1
54 28 55 1
55 28 56 1
56 29 30 1
57 29 34 1
58 30 31 1
59 30 57 1
60 30 58 1
61 31 32 1
62 31 59 1
63 31 60 1
64 32 33 1
65 33 34 1
66 33 61 1
67 33 62 1
68 34 63 1
69 34 64 1
@<TRIPOS>SUBSTRUCTURE
1	DQX1	1	GROUP	1 A	DQX
