# created with PyMOL 2.3.2
@<TRIPOS>MOLECULE
C39226863
55 59 1                 
SMALL
USER_CHARGES
@<TRIPOS>ATOM
1	  C1	31.647	10.720	-4.713	C.2	1	UNL1	0.000	
2	  N1	30.074	15.646	-3.921	N.2	1	UNL1	0.000	
3	  O1	34.661	9.429	-1.254	O.2	1	UNL1	0.000	
4	  C2	31.136	9.426	-4.822	C.2	1	UNL1	0.000	
5	  N2	29.992	16.595	-6.084	N.pl3	1	UNL1	0.000	
6	  O2	31.354	18.376	-6.653	O.2	1	UNL1	0.000	
7	  C3	32.618	8.686	-3.061	C.2	1	UNL1	0.000	
8	  N3	32.489	15.321	-2.003	N.4	1	UNL1	0.000	
9	  O3	33.074	12.299	-3.720	O.3	1	UNL1	0.000	
10	  C4	33.130	9.983	-2.958	C.2	1	UNL1	0.000	
11	  O4	31.116	7.152	-4.102	O.3	1	UNL1	0.000	
12	  C5	32.637	11.004	-3.771	C.2	1	UNL1	0.000	
13	  C6	31.618	8.413	-3.994	C.2	1	UNL1	0.000	
14	  C7	31.510	17.500	-4.465	C.2	1	UNL1	0.000	
15	  C8	34.221	10.282	-2.014	C.2	1	UNL1	0.000	
16	  C9	31.044	16.573	-3.611	C.2	1	UNL1	0.000	
17	 C10	30.959	17.548	-5.839	C.2	1	UNL1	0.000	
18	 C11	29.592	15.691	-5.124	C.2	1	UNL1	0.000	
19	 C12	34.804	11.667	-2.101	C.3	1	UNL1	0.000	
20	 C13	28.393	14.375	-6.971	C.3	1	UNL1	0.000	
21	 C14	28.960	13.370	-6.014	C.3	1	UNL1	0.000	
22	 C15	34.441	14.034	-2.817	C.3	1	UNL1	0.000	
23	 C16	32.703	12.936	-1.379	C.3	1	UNL1	0.000	
24	 C17	33.459	15.155	-3.144	C.3	1	UNL1	0.000	
25	 C18	31.723	14.054	-1.716	C.3	1	UNL1	0.000	
26	 C19	28.544	14.722	-5.523	C.3	1	UNL1	0.000	
27	 C20	33.737	12.695	-2.504	C.3	1	UNL1	0.000	
28	 C21	30.100	6.940	-5.082	C.3	1	UNL1	0.000	
29	 C22	31.567	16.489	-2.224	C.3	1	UNL1	0.000	
30	  H1	31.262	11.504	-5.360	 H	1	UNL1	0.000	
31	  H2	30.361	9.215	-5.554	 H	1	UNL1	0.000	
32	  H3	32.994	7.884	-2.432	 H	1	UNL1	0.000	
33	  H4	32.275	18.219	-4.196	 H	1	UNL1	0.000	
34	  H5	35.244	11.928	-1.132	 H	1	UNL1	0.000	
35	  H6	35.608	11.623	-2.846	 H	1	UNL1	0.000	
36	  H7	29.067	14.819	-7.693	 H	1	UNL1	0.000	
37	  H8	27.388	14.209	-7.340	 H	1	UNL1	0.000	
38	  H9	28.337	12.528	-5.739	 H	1	UNL1	0.000	
39	 H10	30.015	13.139	-6.095	 H	1	UNL1	0.000	
40	 H11	35.107	13.910	-3.680	 H	1	UNL1	0.000	
41	 H12	35.067	14.339	-1.968	 H	1	UNL1	0.000	
42	 H13	33.222	13.181	-0.443	 H	1	UNL1	0.000	
43	 H14	32.118	12.030	-1.183	 H	1	UNL1	0.000	
44	 H15	33.991	16.105	-3.264	 H	1	UNL1	0.000	
45	 H16	32.880	14.947	-4.051	 H	1	UNL1	0.000	
46	 H17	31.115	13.821	-2.597	 H	1	UNL1	0.000	
47	 H18	31.065	14.255	-0.864	 H	1	UNL1	0.000	
48	 H19	27.646	14.781	-4.927	 H	1	UNL1	0.000	
49	 H20	29.788	5.893	-5.063	 H	1	UNL1	0.000	
50	 H21	30.487	7.198	-6.071	 H	1	UNL1	0.000	
51	 H22	29.244	7.577	-4.850	 H	1	UNL1	0.000	
52	 H23	30.746	16.372	-1.511	 H	1	UNL1	0.000	
53	 H24	32.137	17.388	-1.973	 H	1	UNL1	0.000	
54	 H25	29.560	16.559	-7.003	 H	1	UNL1	0.000	
55	 H26	33.040	15.542	-1.163	 H	1	UNL1	0.000	
@<TRIPOS>BOND
1 1 4 ar
2 1 12 ar
3 1 30 1
4 4 13 ar
5 4 31 1
6 5 54 1
7 7 10 ar
8 7 13 ar
9 7 32 1
10 8 55 1
11 10 12 ar
12 10 15 1
13 9 12 1
14 11 13 1
15 14 16 2
16 14 17 1
17 14 33 1
18 3 15 2
19 15 19 1
20 2 16 1
21 16 29 1
22 5 17 1
23 6 17 2
24 2 18 2
25 5 18 1
26 18 26 1
27 19 27 1
28 19 34 1
29 19 35 1
30 20 21 1
31 20 26 1
32 20 36 1
33 20 37 1
34 21 26 1
35 21 38 1
36 21 39 1
37 22 24 1
38 22 27 1
39 22 40 1
40 22 41 1
41 23 25 1
42 23 27 1
43 23 42 1
44 23 43 1
45 8 24 1
46 24 44 1
47 24 45 1
48 8 25 1
49 25 46 1
50 25 47 1
51 26 48 1
52 9 27 1
53 11 28 1
54 28 49 1
55 28 50 1
56 28 51 1
57 8 29 1
58 29 52 1
59 29 53 1
@<TRIPOS>SUBSTRUCTURE
1	UNL1	1	GROUP	1 ****	UNL
