@<TRIPOS>MOLECULE
C39226863
   55    59     0     0     0
SMALL
NO_CHARGES

@<TRIPOS>ATOM
      1 C1         31.6474   10.7198   -4.7134 C.ar      1 <0>         0.0000
      2 C2         31.1362    9.4262   -4.8218 C.ar      1 <0>         0.0000
      3 C3         32.6184    8.6865   -3.0612 C.ar      1 <0>         0.0000
      4 C4         33.1301    9.9829   -2.9583 C.ar      1 <0>         0.0000
      5 C5         32.6372   11.0044   -3.7706 C.ar      1 <0>         0.0000
      6 C6         31.6180    8.4125   -3.9939 C.ar      1 <0>         0.0000
      7 C7         31.5103   17.4998   -4.4652 C.2       1 <0>         0.0000
      8 C8         34.2212   10.2824   -2.0144 C.2       1 <0>         0.0000
      9 C9         31.0443   16.5733   -3.6110 C.2       1 <0>         0.0000
     10 C10        30.9591   17.5484   -5.8388 C.2       1 <0>         0.0000
     11 C11        29.5918   15.6908   -5.1236 C.2       1 <0>         0.0000
     12 C12        34.8040   11.6675   -2.1008 C.3       1 <0>         0.0000
     13 C13        28.3929   14.3745   -6.9712 C.3       1 <0>         0.0000
     14 C14        28.9601   13.3700   -6.0139 C.3       1 <0>         0.0000
     15 C15        34.4412   14.0342   -2.8167 C.3       1 <0>         0.0000
     16 C16        32.7032   12.9356   -1.3787 C.3       1 <0>         0.0000
     17 C17        33.4594   15.1547   -3.1444 C.3       1 <0>         0.0000
     18 C18        31.7229   14.0540   -1.7164 C.3       1 <0>         0.0000
     19 C19        28.5438   14.7217   -5.5225 C.3       1 <0>         0.0000
     20 C20        33.7370   12.6949   -2.5040 C.3       1 <0>         0.0000
     21 C21        30.1003    6.9397   -5.0818 C.3       1 <0>         0.0000
     22 C22        31.5670   16.4887   -2.2237 C.3       1 <0>         0.0000
     23 N1         30.0736   15.6458   -3.9207 N.2       1 <0>         0.0000
     24 N2         29.9920   16.5951   -6.0839 N.am      1 <0>         0.0000
     25 N3         32.4886   15.3208   -2.0032 N.4       1 <0>         0.0000
     26 O1         34.6614    9.4287   -1.2538 O.2       1 <0>         0.0000
     27 O2         31.3538   18.3760   -6.6531 O.2       1 <0>         0.0000
     28 O3         33.0737   12.2994   -3.7204 O.3       1 <0>         0.0000
     29 O4         31.1156    7.1520   -4.1021 O.3       1 <0>         0.0000
     30 H1         31.2618   11.5036   -5.3601 H         1 <0>         0.0000
     31 H2         30.3612    9.2148   -5.5535 H         1 <0>         0.0000
     32 H3         32.9944    7.8842   -2.4317 H         1 <0>         0.0000
     33 H4         32.2749   18.2186   -4.1957 H         1 <0>         0.0000
     34 H5         35.2440   11.9284   -1.1317 H         1 <0>         0.0000
     35 H6         35.6079   11.6232   -2.8458 H         1 <0>         0.0000
     36 H7         29.0673   14.8190   -7.6929 H         1 <0>         0.0000
     37 H8         27.3882   14.2087   -7.3403 H         1 <0>         0.0000
     38 H9         28.3373   12.5275   -5.7389 H         1 <0>         0.0000
     39 H10        30.0153   13.1386   -6.0948 H         1 <0>         0.0000
     40 H11        35.1073   13.9099   -3.6798 H         1 <0>         0.0000
     41 H12        35.0669   14.3391   -1.9677 H         1 <0>         0.0000
     42 H13        33.2225   13.1814   -0.4430 H         1 <0>         0.0000
     43 H14        32.1176   12.0303   -1.1827 H         1 <0>         0.0000
     44 H15        33.9906   16.1048   -3.2639 H         1 <0>         0.0000
     45 H16        32.8797   14.9469   -4.0506 H         1 <0>         0.0000
     46 H17        31.1145   13.8213   -2.5974 H         1 <0>         0.0000
     47 H18        31.0652   14.2550   -0.8641 H         1 <0>         0.0000
     48 H19        27.6462   14.7812   -4.9270 H         1 <0>         0.0000
     49 H20        29.7882    5.8927   -5.0631 H         1 <0>         0.0000
     50 H21        30.4873    7.1982   -6.0708 H         1 <0>         0.0000
     51 H22        29.2438    7.5771   -4.8499 H         1 <0>         0.0000
     52 H23        30.7461   16.3719   -1.5106 H         1 <0>         0.0000
     53 H24        32.1367   17.3876   -1.9727 H         1 <0>         0.0000
     54 H25        29.5603   16.5585   -7.0030 H         1 <0>         0.0000
     55 H26        33.0402   15.5416   -1.1625 H         1 <0>         0.0000
@<TRIPOS>BOND
     1    1    2 ar
     2    1    5 ar
     3    2    6 ar
     4    3    4 ar
     5    3    6 ar
     6    4    5 ar
     7    4    8 1
     8    5   28 1
     9    6   29 1
    10    7    9 2
    11    7   10 1
    12    8   12 1
    13    8   26 2
    14    9   22 1
    15    9   23 1
    16   10   24 am
    17   10   27 2
    18   11   19 1
    19   11   23 2
    20   11   24 1
    21   12   20 1
    22   13   14 1
    23   13   19 1
    24   14   19 1
    25   15   17 1
    26   15   20 1
    27   16   18 1
    28   16   20 1
    29   17   25 1
    30   18   25 1
    31   20   28 1
    32   21   29 1
    33   22   25 1
    34    1   30 1
    35    2   31 1
    36    3   32 1
    37    7   33 1
    38   12   34 1
    39   12   35 1
    40   13   36 1
    41   13   37 1
    42   14   38 1
    43   14   39 1
    44   15   40 1
    45   15   41 1
    46   16   42 1
    47   16   43 1
    48   17   44 1
    49   17   45 1
    50   18   46 1
    51   18   47 1
    52   19   48 1
    53   21   49 1
    54   21   50 1
    55   21   51 1
    56   22   52 1
    57   22   53 1
    58   24   54 1
    59   25   55 1
