@<TRIPOS>MOLECULE
C39226863
 55 59 0 0 0
SMALL
GASTEIGER

@<TRIPOS>ATOM
      1 C          32.8647   12.3841   -2.8499 C.ar    1  UNL1       -0.0158
      2 C          33.1192   11.0123   -2.8543 C.ar    1  UNL1       -0.0165
      3 C          31.0429   10.6248   -4.0300 C.ar    1  UNL1       -0.0060
      4 C          30.7903   11.9993   -4.0205 C.ar    1  UNL1        0.0626
      5 C          31.7047   12.8824   -3.4459 C.ar    1  UNL1        0.1320
      6 C          32.2118   10.1349   -3.4474 C.ar    1  UNL1        0.1210
      7 C          31.5977   19.8228   -5.8548 C.ar    1  UNL1        0.0293
      8 C          29.5388   12.5325   -4.5864 C.2     1  UNL1        0.1706
      9 C          32.8704   19.4996   -5.5701 C.ar    1  UNL1        0.0927
     10 C          31.2252   21.2532   -5.9428 C.ar    1  UNL1        0.2519
     11 C          33.5479   21.6668   -5.4276 C.ar    1  UNL1        0.1133
     12 C          29.2971   14.0036   -4.3785 C.3     1  UNL1        0.0508
     13 C          35.8313   22.6721   -6.0268 C.3     1  UNL1       -0.0427
     14 C          34.8066   23.7417   -6.2575 C.3     1  UNL1       -0.0427
     15 C          30.3248   16.2328   -3.9098 C.3     1  UNL1        0.0280
     16 C          31.2694   14.8440   -5.7737 C.3     1  UNL1        0.0280
     17 C          31.5599   17.1270   -3.9522 C.3     1  UNL1       -0.0278
     18 C          32.5059   15.7361   -5.8061 C.3     1  UNL1       -0.0278
     19 C          34.5822   22.7040   -5.2015 C.3     1  UNL1        0.0172
     20 C          30.6168   14.7877   -4.3722 C.3     1  UNL1        0.1272
     21 C          31.4961    7.9551   -4.0735 C.3     1  UNL1        0.0788
     22 C          33.2891   18.0782   -5.4732 C.3     1  UNL1        0.0117
     23 N          33.8762   20.4150   -5.3491 N.ar    1  UNL1       -0.2330
     24 N          32.2765   22.1169   -5.7123 N.ar    1  UNL1       -0.3106
     25 N          32.1344   17.1231   -5.3460 N.4     1  UNL1        0.2398
     26 O          28.7225   11.8020   -5.1352 O.2     1  UNL1       -0.2918
     27 O          30.0762   21.5962   -6.1996 O.2     1  UNL1       -0.2678
     28 O          31.5381   14.2393   -3.4097 O.3     1  UNL1       -0.4842
     29 O          32.4646    8.7973   -3.4505 O.3     1  UNL1       -0.4951
     30 H          33.5806   13.0597   -2.3891 H       1  UNL1        0.0655
     31 H          34.0278   10.6334   -2.3942 H       1  UNL1        0.0655
     32 H          30.3378    9.9287   -4.4767 H       1  UNL1        0.0662
     33 H          30.8253   19.0822   -6.0247 H       1  UNL1        0.0692
     34 H          28.6345   14.3698   -5.1708 H       1  UNL1        0.0384
     35 H          28.7767   14.1028   -3.4179 H       1  UNL1        0.0384
     36 H          35.9419   21.9082   -6.7867 H       1  UNL1        0.0272
     37 H          36.7561   22.9558   -5.5393 H       1  UNL1        0.0272
     38 H          35.0419   24.7457   -5.9258 H       1  UNL1        0.0272
     39 H          34.2308   23.6968   -7.1739 H       1  UNL1        0.0272
     40 H          29.9537   16.2235   -2.8770 H       1  UNL1        0.0356
     41 H          29.5363   16.6763   -4.5317 H       1  UNL1        0.0356
     42 H          30.5408   15.2104   -6.5087 H       1  UNL1        0.0356
     43 H          31.5734   13.8450   -6.1060 H       1  UNL1        0.0356
     44 H          31.2911   18.1608   -3.7112 H       1  UNL1        0.0816
     45 H          32.3427   16.7865   -3.2656 H       1  UNL1        0.0816
     46 H          33.3026   15.3661   -5.1512 H       1  UNL1        0.0816
     47 H          32.8876   15.8220   -6.8289 H       1  UNL1        0.0816
     48 H          34.6716   23.0129   -4.1719 H       1  UNL1        0.0379
     49 H          31.8202    6.9137   -4.0057 H       1  UNL1        0.0660
     50 H          31.3803    8.2444   -5.1210 H       1  UNL1        0.0660
     51 H          30.5399    8.0709   -3.5577 H       1  UNL1        0.0660
     52 H          33.9163   17.9221   -4.5910 H       1  UNL1        0.0882
     53 H          33.8440   17.7799   -6.3668 H       1  UNL1        0.0882
     54 H          32.1077   23.1180   -5.7538 H       1  UNL1        0.1700
     55 H          31.4008   17.4691   -5.9798 H       1  UNL1        0.2037
@<TRIPOS>UNITY_ATOM_ATTR
25 1
charge 1
@<TRIPOS>BOND
     1     1     2   ar
     2     1     5   ar
     3     2     6   ar
     4     3     4   ar
     5     3     6   ar
     6     4     5   ar
     7     4     8    1
     8     5    28    1
     9     6    29    1
    10     7     9   ar
    11     7    10   ar
    12     8    12    1
    13     8    26    2
    14     9    22    1
    15     9    23   ar
    16    10    24   ar
    17    10    27    2
    18    11    19    1
    19    11    23   ar
    20    11    24   ar
    21    12    20    1
    22    13    14    1
    23    13    19    1
    24    14    19    1
    25    15    17    1
    26    15    20    1
    27    16    18    1
    28    16    20    1
    29    17    25    1
    30    18    25    1
    31    20    28    1
    32    21    29    1
    33    22    25    1
    34     1    30    1
    35     2    31    1
    36     3    32    1
    37     7    33    1
    38    12    34    1
    39    12    35    1
    40    13    36    1
    41    13    37    1
    42    14    38    1
    43    14    39    1
    44    15    40    1
    45    15    41    1
    46    16    42    1
    47    16    43    1
    48    17    44    1
    49    17    45    1
    50    18    46    1
    51    18    47    1
    52    19    48    1
    53    21    49    1
    54    21    50    1
    55    21    51    1
    56    22    52    1
    57    22    53    1
    58    24    54    1
    59    25    55    1
