@<TRIPOS>MOLECULE
C38533057
 45 48 0 0 0
SMALL
GASTEIGER

@<TRIPOS>ATOM
      1 C          32.7097   22.1341   -5.6262 C.ar    1  UNL1       -0.0432
      2 C          31.5340   10.1352   -3.6797 C.ar    1  UNL1       -0.0440
      3 C          32.5237   12.3392   -3.6820 C.ar    1  UNL1       -0.0440
      4 C          32.5908    9.6614   -2.9025 C.ar    1  UNL1       -0.0469
      5 C          33.5806   11.8654   -2.9047 C.ar    1  UNL1       -0.0469
      6 C          31.6193   21.2887   -5.7978 C.ar    1  UNL1       -0.0511
      7 C          33.9063   21.5730   -5.2102 C.ar    1  UNL1        0.0276
      8 C          32.9962   19.4647   -5.1392 C.ar    1  UNL1        0.0354
      9 C          31.5004   11.4742   -4.0695 C.ar    1  UNL1        0.0891
     10 C          33.6141   10.5265   -2.5149 C.ar    1  UNL1        0.0590
     11 C          31.7569   19.9271   -5.5517 C.ar    1  UNL1        0.0198
     12 C          29.9672   15.9980   -3.6830 C.2     1  UNL1        0.0141
     13 C          30.0972   14.7182   -4.0433 C.2     1  UNL1        0.0152
     14 C          30.8578   15.4379   -6.3712 C.2     1  UNL1       -0.0000
     15 C          30.7324   16.7277   -6.0330 C.2     1  UNL1       -0.0617
     16 C          30.2770   17.0357   -4.6610 C.2     1  UNL1        0.1853
     17 C          30.5480   14.3562   -5.4065 C.2     1  UNL1        0.2016
     18 C          30.3942   11.9700   -4.8825 C.2     1  UNL1        0.4141
     19 C          34.7149   10.0329   -1.7031 C.2     1  UNL1        0.3389
     20 C          30.5902   18.9814   -5.7297 C.3     1  UNL1        0.1160
     21 C          36.7524   10.6584   -0.6305 C.3     1  UNL1        0.0820
     22 N          34.0783   20.2554   -4.9614 N.ar    1  UNL1       -0.2628
     23 N          30.9452   17.9028   -6.6838 N.pl3   1  UNL1       -0.6054
     24 N          30.2057   18.2949   -4.4817 N.2     1  UNL1       -0.2511
     25 N          30.6696   13.1238   -5.7473 N.am    1  UNL1       -0.1444
     26 O          29.2565   11.5133   -4.8756 O.2     1  UNL1       -0.2141
     27 O          34.8265    8.8638   -1.3105 O.2     1  UNL1       -0.2450
     28 O          35.6184   11.0222   -1.4251 O.3     1  UNL1       -0.4645
     29 H          32.6256   23.1987   -5.8123 H       1  UNL1        0.0633
     30 H          30.7414    9.4525   -3.9756 H       1  UNL1        0.0627
     31 H          32.5075   13.3847   -3.9792 H       1  UNL1        0.0627
     32 H          32.6064    8.6163   -2.6038 H       1  UNL1        0.0626
     33 H          34.3724   12.5485   -2.6080 H       1  UNL1        0.0626
     34 H          30.6673   21.6990   -6.1234 H       1  UNL1        0.0623
     35 H          34.7863   22.1902   -5.0613 H       1  UNL1        0.0829
     36 H          33.1638   18.4123   -4.9322 H       1  UNL1        0.0834
     37 H          29.6384   16.2768   -2.6890 H       1  UNL1        0.0685
     38 H          29.8732   13.9242   -3.3382 H       1  UNL1        0.0685
     39 H          31.1926   15.1593   -7.3662 H       1  UNL1        0.0672
     40 H          29.7010   19.5623   -6.0643 H       1  UNL1        0.0901
     41 H          37.3905   11.5332   -0.4830 H       1  UNL1        0.0661
     42 H          37.3123    9.8665   -1.1342 H       1  UNL1        0.0661
     43 H          36.4050   10.2958    0.3398 H       1  UNL1        0.0661
     44 H          29.9090   18.7105   -3.5978 H       1  UNL1        0.4445
     45 H          31.0033   12.9404   -6.7065 H       1  UNL1        0.4475
@<TRIPOS>UNITY_ATOM_ATTR
23 1
charge -1
24 1
charge 1
25 1
charge 1
@<TRIPOS>BOND
     1     1     6   ar
     2     1     7   ar
     3     2     4   ar
     4     2     9   ar
     5     3     5   ar
     6     3     9   ar
     7     4    10   ar
     8     5    10   ar
     9     6    11   ar
    10     7    22   ar
    11     8    11   ar
    12     8    22   ar
    13     9    18    1
    14    10    19    1
    15    11    20    1
    16    12    13    2
    17    12    16    1
    18    13    17    1
    19    14    15    2
    20    14    17    1
    21    15    16    1
    22    15    23    1
    23    16    24    2
    24    17    25    2
    25    18    25   am
    26    18    26    2
    27    19    27    2
    28    19    28    1
    29    20    23    1
    30    20    24    1
    31    21    28    1
    32     1    29    1
    33     2    30    1
    34     3    31    1
    35     4    32    1
    36     5    33    1
    37     6    34    1
    38     7    35    1
    39     8    36    1
    40    12    37    1
    41    13    38    1
    42    14    39    1
    43    20    40    1
    44    21    41    1
    45    21    42    1
    46    21    43    1
    47    24    44    1
    48    25    45    1
